                                         -- CODE_ASTER -- VERSION D'EXPLOITATION  9.04    --

                                                   COPYRIGHT  EDF-R&D 1991 - 2008

                                               EXECUTION DU : ME-08-AVRI-2009 18:41:55

                                                   PLATE-FORME : CLAU5AAA        

                                                NB MAX PROC OpenMP:   1             

                                                     SYSTEME : LINUX           

                                                       CPU : X86_64          

 <I> <FIN> FERMETURE DE LA BASE "GLOBALE" EFFECTUEE.
 <I> <FIN> ARRET NORMAL DANS "FIN" PAR APPEL A "JEFINI".
 <I>       FERMETURE DES BASES EFFECTUEE
