                                         -- CODE_ASTER -- VERSION D'EXPLOITATION  9.04    --

                                                   COPYRIGHT  EDF-R&D 1991 - 2008

                                               EXECUTION DU : ME-07-OCTO-2009 17:44:31

                                                   PLATE-FORME : CLAU5AAA        

                                                NB MAX PROC OpenMP:   1             

                                                     SYSTEME : LINUX           

                                                       CPU : X86_64          


   !-----------------------------------------------------------------------!
   !   Liste des alarmes émises lors de l'exécution du calcul.             !
   !                                                                       !
   !   Les alarmes que vous avez choisies d'ignorer sont précédées de (*). !
   !   Nombre d'occurrences pour chacune des alarmes :                     !
   !          aucune alarme                                                !
   !-----------------------------------------------------------------------!

 <I> <FIN> FERMETURE DE LA BASE "GLOBALE" EFFECTUEE.
 <I> <FIN> ARRET NORMAL DANS "FIN" PAR APPEL A "JEFINI".

 ********************************************************************************
 * COMMAND                  :       USER :     SYSTEM :   USER+SYS :    ELAPSED *
 ********************************************************************************
 * init (jdc)               :       1.69 :       0.14 :       1.83 :       1.84 *
 *  . compile               :       0.00 :       0.00 :       0.00 :       0.00 *
 *  . exec_compile          :       0.20 :       0.03 :       0.23 :       0.23 *
 *  . report                :       0.01 :       0.00 :       0.01 :       0.02 *
 *  . build                 :       0.00 :       0.00 :       0.00 :       0.00 *
 * DEBUT                    :       0.01 :       0.03 :       0.04 :       0.05 *
 * LIRE_MAILLAGE            :       0.01 :       0.00 :       0.01 :       0.00 *
 * DEFI_GROUP               :       0.00 :       0.00 :       0.00 :       0.00 *
 * DEFI_MATERIAU            :       0.00 :       0.00 :       0.00 :       0.01 *
 * AFFE_MATERIAU            :       0.00 :       0.00 :       0.00 :       0.00 *
 * AFFE_MODELE              :       0.01 :       0.00 :       0.01 :       0.00 *
 * AFFE_CHAR_MECA           :       0.01 :       0.00 :       0.01 :       0.01 *
 * DEFI_FONCTION            :       0.00 :       0.00 :       0.00 :       0.00 *
 * DEFI_LIST_REEL           :       0.00 :       0.00 :       0.00 :       0.01 *
 * STAT_NON_LINE            :       0.30 :       0.02 :       0.32 :       0.33 *
 * CALC_ELEM                :       0.14 :       0.01 :       0.15 :       0.15 *
 * POST_RELEVE_T            :       0.04 :       0.00 :       0.04 :       0.04 *
 * POST_RELEVE_T            :       0.05 :       0.00 :       0.05 :       0.05 *
 * DEFI_FICHIER             :       0.00 :       0.00 :       0.00 :       0.00 *
 * IMPR_TABLE               :       0.01 :       0.00 :       0.01 :       0.01 *
 * DEFI_FICHIER             :       0.00 :       0.00 :       0.00 :       0.00 *
 * DEFI_FICHIER             :       0.00 :       0.00 :       0.00 :       0.00 *
 * IMPR_TABLE               :       0.01 :       0.00 :       0.01 :       0.01 *
 * DEFI_FICHIER             :       0.00 :       0.00 :       0.00 :       0.00 *
 * FIN                      :       0.01 :       0.04 :       0.05 :       0.06 *
 *  . part Superviseur      :       1.73 :       0.17 :       1.90 :       1.90 *
 *  . part Fortran          :       0.59 :       0.07 :       0.66 :       0.67 *
 ********************************************************************************
 * TOTAL_JOB                :       2.32 :       0.24 :       2.56 :       2.58 *
 ********************************************************************************

